
Note: Compatibility modes selected: hs a


Circuit: ** sch_path: /foss/designs/endurance_cryo_toolbox/src/exp/sky130/nch/iv_current_vs_vgate/iv_nmos.sch

option SCALE: Scale is set to 1e-06 for instance and model parameters
 BSIM4v5 models (Berkeley Short Channel IGFET Model-4)
      model xm1:sky130_fd_pr__nfe

     capmod                     2
     diomod                     1
     rdsmod                     0
   trnqsmod                     0
   acnqsmod                     0
     mobmod                     0
   rbodymod                     1
   rgatemod                     0
     permod                     1
     geomod                     0
    rgeomod                     0
    fnoimod                     1
    tnoimod                     1
     igcmod                     0
     igbmod                     0
    tempmod                     0
   paramchk                     0
    binunit                     2
    version                   4.5
       toxe             4.148e-09
       toxp                     0
       toxm             4.148e-09
     toxref             4.148e-09
       dtox                     0
     epsrox                   3.9
       cdsc                     0
      cdscb                     0
      cdscd              0.002052
        cit                     0
    nfactor               31.1835
         xj               1.5e-07
       vsat                215199
         at               -342126
         a0                   1.5
        ags                  1.25
         a1                     0
         a2              0.423855
       keta               0.74655
       nsub                     0
       ndep               1.7e+17
        nsd                 1e+20
       phin                     0
      ngate                 1e+23
     gamma1                     0
     gamma2                     0
        vbx                     0
        vbm                    -3
         xt                     0
         k1              0.907073
        kt1              0.161886
       kt1l                     0
        kt2            -0.0288789
         k2            -0.0503952
         k3                     2
        k3b                  0.54
         w0                     0
      dvtp0                     0
      dvtp1                     0
       lpe0            1.0325e-07
       lpeb            -7.082e-08
       dvt0                     0
       dvt1                  0.53
       dvt2                -0.032
      dvt0w                 -3.58
      dvt1w            1.6706e+06
      dvt2w                 0.068
      drout              0.503327
       dsub              0.458625
       vth0             0.0318814
         ua          -1.17888e-09
        ua1          -2.38473e-11
         ub           1.12129e-18
        ub1           7.07753e-19
         uc          -4.77321e-10
        uc1           1.47186e-10
         ud                     0
        ud1                     0
         up                     0
         lp                     1
         u0             0.0287961
         eu                  1.67
        ute              -1.31904
       voff              -0.20753
       minv                     0
      voffl           5.81977e-09
       tnom                303.15
       cgso           2.44907e-10
       cgdo           2.44907e-10
       cgbo                 1e-13
      xpart                     0
      delta                  0.01
        rsh                     1
       rdsw                65.968
    rdswmin                     0
        rsw                     0
        rdw                     0
     rdwmin                     0
     rswmin                     0
       prwg              0.021507
       prwb                     0
        prt                     0
       eta0           0.000694139
       etab             -0.043998
       pclm              0.182428
    pdiblc1              0.356972
    pdiblc2            0.00840611
    pdiblcb             -0.103296
     fprout                     0
      pdits                     0
     pditsl                     0
     pditsd                     0
     pscbe1            7.9142e+08
     pscbe2                 1e-12
       pvag                     0
        jss               0.00275
       jsws                 6e-10
      jswgs                     0
        pbs                 0.729
        njs                1.2928
       xtis                     2
        mjs                  0.44
      pbsws                   0.2
      mjsws                0.0009
     pbswgs               0.95578
     mjswgs                   0.8
        cjs            0.00133975
      cjsws           3.67354e-11
     cjswgs           2.38233e-10
        jsd                     0
       jswd                     0
      jswgd                     0
        pbd                     0
        njd                     0
       xtid                     0
        mjd                     0
      pbswd                     0
      mjswd                     0
     pbswgd                     0
     mjswgd                     0
        cjd                     0
      cjswd                     0
     cjswgd                     0
      vfbcv                    -1
        vfb                     0
        tpb             0.0012287
        tcj              0.000792
      tpbsw                     0
      tcjsw                 1e-05
     tpbswg                     0
     tcjswg                     0
       acde                   0.4
       moin                   6.9
       noff                3.4037
     voffcv              -0.17287
       dmcg                     0
       dmci                     0
       dmdg                     0
      dmcgt                     0
        xgw                     0
        xgl                     0
       rshg                   0.1
      ngcon                     1
     xrcrg1                    12
     xrcrg2                     1
     lambda                     0
        vtl                     0
         lc                 5e-09
         xn                     3
   vfbsdoff                     0
  tvfbsdoff                     0
      tvoff                     0
    lintnoi <<NAN, error = 7>>
       lint            1.1932e-08
         ll                     0
        llc                     0
        lln                     1
         lw                     0
        lwc                     0
        lwn                     1
        lwl                     0
       lwlc                     0
       lmin               1.5e-07
       lmax               1.8e-07
         wr                     1
       wint            2.1859e-08
        dwg                     0
        dwb                     0
         wl                     0
        wlc                     0
        wln                     1
         ww                     0
        wwc                     0
        wwn                     1
        wwl                     0
       wwlc                     0
       wmin                 1e-06
       wmax              1.26e-06
         b0                     0
         b1                     0
       cgsl                     0
       cgdl                     0
    ckappas                   0.6
    ckappad                     0
         cf            1.4067e-12
        clc                 1e-07
        cle                   0.6
        dwc                     0
        dlc           9.87908e-09
         xw                     0
         xl                     0
      dlcig                     0
        dwj                     0
     alpha0           1.90795e-07
     alpha1                  0.85
      beta0               9.44727
      agidl                     0
      bgidl               2.3e+09
      cgidl                   0.5
      egidl                   0.8
       aigc                  0.43
       bigc                 0.054
       cigc                 0.075
      aigsd                  0.43
      bigsd                 0.054
      cigsd                 0.075
    aigbacc                     1
    bigbacc                     0
    cigbacc                     0
    aigbinv                  0.35
    bigbinv                  0.03
    cigbinv                 0.006
       nigc                     0
    nigbinv                     0
    nigbacc                     0
       ntox                     1
    eigbinv                   1.1
      pigcd                     1
    poxedge                     1
   ijthdfwd                     0
   ijthsfwd                   0.1
   ijthdrev                     0
   ijthsrev                   0.1
      xjbvd                     0
      xjbvs                     1
        bvd                     0
        bvs                  11.7
       jtss                     0
       jtsd                     0
     jtssws                     0
     jtsswd                     0
    jtsswgs                     0
    jtsswgd                     0
       njts                     0
     njtssw                     0
    njtsswg                     0
       xtss                     0
       xtsd                     0
     xtssws                     0
     xtsswd                     0
    xtsswgs                     0
    xtsswgd                     0
      tnjts                     0
    tnjtssw                     0
   tnjtsswg                     0
       vtss                     0
       vtsd                     0
     vtssws                     0
     vtsswd                     0
    vtsswgs                     0
    vtsswgd                     0
      gbmin                 1e-12
       rbdb                    50
       rbpb                    50
       rbsb                    50
       rbps                    50
       rbpd                    50
      rbps0                     0
      rbpsl                     0
      rbpsw                     0
     rbpsnf                     0
      rbpd0                     0
      rbpdl                     0
      rbpdw                     0
     rbpdnf                     0
     rbpbx0                     0
     rbpbxl                     0
     rbpbxw                     0
    rbpbxnf                     0
     rbpby0                     0
     rbpbyl                     0
     rbpbyw                     0
    rbpbynf                     0
     rbsbx0                     0
     rbsby0                     0
     rbdbx0                     0
     rbdby0                     0
    rbsdbxl                     0
    rbsdbxw                     0
   rbsdbxnf                     0
    rbsdbyl                     0
    rbsdbyw                     0
   rbsdbynf                     0
      lcdsc                     0
     lcdscb                     0
     lcdscd                     0
       lcit                     0
   lnfactor          -3.85297e-06
        lxj                     0
      lvsat           -0.00671434
        lat             0.0482907
        la0                     0
       lags                     0
        la1                     0
        la2                     0
      lketa          -9.41669e-08
      lnsub                     0
      lndep                     0
       lnsd                     0
      lphin                     0
     lngate                     0
    lgamma1                     0
    lgamma2                     0
       lvbx                     0
       lvbm                     0
        lxt                     0
        lk1                     0
       lkt1          -4.82907e-08
      lkt1l                     0
       lkt2                     0
        lk2          -8.58029e-09
        lk3                     0
       lk3b                     0
        lw0                     0
     ldvtp0                     0
     ldvtp1                     0
      llpe0                     0
      llpeb                     0
      ldvt0                     0
      ldvt1                     0
      ldvt2                     0
     ldvt0w                     0
     ldvt1w                     0
     ldvt2w                     0
     ldrout                     0
      ldsub                     0
      lvth0           5.37956e-08
        lua          -4.29787e-19
       lua1                     0
        lub           2.24962e-25
       lub1                     0
        luc           7.04272e-17
       luc1                     0
        lud                     0
       lud1                     0
        lup                     0
        llp                     0
        lu0          -6.88142e-11
       lute                     0
      lvoff                     0
      lminv                     0
     ldelta                     0
      lrdsw                     0
       lrsw                     0
       lrdw                     0
      lprwg                     0
      lprwb                     0
       lprt                     0
      leta0                     0
      letab                     0
      lpclm                     0
   lpdiblc1                     0
   lpdiblc2                     0
   lpdiblcb                     0
    lfprout                     0
     lpdits                     0
    lpditsd                     0
    lpscbe1                     0
    lpscbe2                     0
      lpvag                     0
        lwr                     0
       ldwg                     0
       ldwb                     0
        lb0                     0
        lb1                     0
      lcgsl                     0
      lcgdl                     0
   lckappas                     0
   lckappad                     0
        lcf                     0
       lclc                     0
       lcle                     0
    lalpha0          -2.02821e-14
    lalpha1                     0
     lbeta0           5.55343e-07
     lagidl                     0
     lbgidl                     0
     lcgidl                     0
     legidl                     0
      laigc                     0
      lbigc                     0
      lcigc                     0
     laigsd                     0
     lbigsd                     0
     lcigsd                     0
   laigbacc                     0
   lbigbacc                     0
   lcigbacc                     0
   laigbinv                     0
   lbigbinv                     0
   lcigbinv                     0
      lnigc                     0
   lnigbinv                     0
   lnigbacc                     0
      lntox                     0
   leigbinv                     0
     lpigcd                     0
   lpoxedge                     0
     lvfbcv                     0
       lvfb                     0
      lacde                     0
      lmoin                     0
      lnoff                     0
    lvoffcv                     0
    lxrcrg1                     0
    lxrcrg2                     0
    llambda <<NAN, error = 7>>
       lvtl <<NAN, error = 7>>
        lxn <<NAN, error = 7>>
        leu                     0
  lvfbsdoff                     0
 ltvfbsdoff                     0
     ltvoff                     0
      wcdsc                     0
     wcdscb                     0
     wcdscd                     0
       wcit                     0
   wnfactor           -3.5019e-05
        wxj                     0
      wvsat            -0.0465645
        wat              0.465649
        wa0                     0
       wags                     0
        wa1                     0
        wa2                     0
      wketa          -9.08016e-07
      wnsub                     0
      wndep                     0
       wnsd                     0
      wphin                     0
     wngate                     0
    wgamma1                     0
    wgamma2                     0
       wvbx                     0
       wvbm                     0
        wxt                     0
        wk1                     0
       wkt1          -4.65649e-07
      wkt1l                     0
       wkt2                     0
        wk2          -9.23286e-08
        wk3                     0
       wk3b                     0
        ww0                     0
     wdvtp0                     0
     wdvtp1                     0
      wlpe0                     0
      wlpeb                     0
      wdvt0                     0
      wdvt1                     0
      wdvt2                     0
     wdvt0w                     0
     wdvt1w                     0
     wdvt2w                     0
     wdrout                     0
      wdsub                     0
      wvth0           5.32814e-07
        wua           2.57642e-19
       wua1                     0
        wub           1.15128e-24
       wub1                     0
        wuc           6.79103e-16
       wuc1                     0
        wud                     0
       wud1                     0
        wup                     0
        wlp                     0
        wu0          -2.54018e-09
       wute                     0
      wvoff                     0
      wminv                     0
     wdelta                     0
      wrdsw                     0
       wrsw                     0
       wrdw                     0
      wprwg                     0
      wprwb                     0
       wprt                     0
      weta0                     0
      wetab                     0
      wpclm           -5.0461e-08
   wpdiblc1                     0
   wpdiblc2                     0
   wpdiblcb                     0
    wfprout                     0
     wpdits                     0
    wpditsd                     0
    wpscbe1                     0
    wpscbe2                     0
      wpvag                     0
        wwr                     0
       wdwg                     0
       wdwb                     0
        wb0                     0
        wb1                     0
      wcgsl                     0
      wcgdl                     0
   wckappas                     0
   wckappad                     0
        wcf                     0
       wclc                     0
       wcle                     0
    walpha0          -1.95573e-13
    walpha1                     0
     wbeta0           5.35496e-06
     wagidl                     0
     wbgidl                     0
     wcgidl                     0
     wegidl                     0
      waigc                     0
      wbigc                     0
      wcigc                     0
     waigsd                     0
     wbigsd                     0
     wcigsd                     0
   waigbacc                     0
   wbigbacc                     0
   wcigbacc                     0
   waigbinv                     0
   wbigbinv                     0
   wcigbinv                     0
      wnigc                     0
   wnigbinv                     0
   wnigbacc                     0
      wntox                     0
   weigbinv                     0
     wpigcd                     0
   wpoxedge                     0
     wvfbcv                     0
       wvfb                     0
      wacde                     0
      wmoin                     0
      wnoff                     0
    wvoffcv                     0
    wxrcrg1                     0
    wxrcrg2                     0
    wlambda <<NAN, error = 7>>
       wvtl <<NAN, error = 7>>
        wxn <<NAN, error = 7>>
        weu                     0
  wvfbsdoff                     0
 wtvfbsdoff                     0
     wtvoff                     0
      pcdsc                     0
     pcdscb                     0
     pcdscd                     0
       pcit                     0
   pnfactor            4.6863e-12
        pxj                     0
      pvsat           8.16653e-09
        pat          -5.87351e-08
        pa0                     0
       pags                     0
        pa1                     0
        pa2                     0
      pketa           1.14533e-13
      pnsub                     0
      pndep                     0
       pnsd                     0
      pphin                     0
     pngate                     0
    pgamma1                     0
    pgamma2                     0
       pvbx                     0
       pvbm                     0
        pxt                     0
        pk1                     0
       pkt1           5.87351e-14
      pkt1l                     0
       pkt2                     0
        pk2           1.04361e-14
        pk3                     0
       pk3b                     0
        pw0                     0
     pdvtp0                     0
     pdvtp1                     0
      plpe0                     0
      plpeb                     0
      pdvt0                     0
      pdvt1                     0
      pdvt2                     0
     pdvt0w                     0
     pdvt1w                     0
     pdvt2w                     0
     pdrout                     0
      pdsub                     0
      pvth0          -6.54306e-14
        pua           5.22742e-25
       pua1                     0
        pub          -2.73617e-31
       pub1                     0
        puc          -8.56593e-23
       puc1                     0
        pud                     0
       pud1                     0
        pup                     0
        plp                     0
        pu0           8.36975e-17
       pute                     0
      pvoff                     0
      pminv                     0
     pdelta                     0
      prdsw                     0
       prsw                     0
       prdw                     0
      pprwg                     0
      pprwb                     0
       pprt                     0
      peta0                     0
      petab                     0
      ppclm                     0
   ppdiblc1                     0
   ppdiblc2                     0
   ppdiblcb                     0
    pfprout                     0
     ppdits                     0
    ppditsd                     0
    ppscbe1                     0
    ppscbe2                     0
      ppvag                     0
        pwr                     0
       pdwg                     0
       pdwb                     0
        pb0                     0
        pb1                     0
      pcgsl                     0
      pcgdl                     0
   pckappas                     0
   pckappad                     0
        pcf                     0
       pclc                     0
       pcle                     0
    palpha0           2.46687e-20
    palpha1                     0
     pbeta0          -6.75454e-13
     pagidl                     0
     pbgidl                     0
     pcgidl                     0
     pegidl                     0
      paigc                     0
      pbigc                     0
      pcigc                     0
     paigsd                     0
     pbigsd                     0
     pcigsd                     0
   paigbacc                     0
   pbigbacc                     0
   pcigbacc                     0
   paigbinv                     0
   pbigbinv                     0
   pcigbinv                     0
      pnigc                     0
   pnigbinv                     0
   pnigbacc                     0
      pntox                     0
   peigbinv                     0
     ppigcd                     0
   ppoxedge                     0
     pvfbcv                     0
       pvfb                     0
      pacde                     0
      pmoin                     0
      pnoff                     0
    pvoffcv                     0
    pxrcrg1                     0
    pxrcrg2                     0
    plambda <<NAN, error = 7>>
       pvtl <<NAN, error = 7>>
        pxn <<NAN, error = 7>>
        peu                     0
  pvfbsdoff                     0
 ptvfbsdoff                     0
     ptvoff                     0
      saref              1.04e-06
      sbref              1.04e-06
       wlod                     0
        ku0              -2.7e-08
      kvsat                   0.2
      kvth0               9.8e-09
       tku0                     0
    llodku0                     0
    wlodku0                     1
    llodvth                     0
    wlodvth                     1
       lku0                     0
       wku0                     0
       pku0                     0
     lkvth0                     0
     wkvth0                 2e-07
     pkvth0                     0
       stk2                     0
      lodk2                     1
     steta0                     0
    lodeta0                     1
        web                     0
        wec                     0
    kvth0we                     0
       k2we                     0
      ku0we                     0
      scref                     0
     wpemod                     0
   lkvth0we                     0
      lk2we                     0
     lku0we                     0
   wkvth0we                     0
      wk2we                     0
     wku0we                     0
   pkvth0we                     0
      pk2we                     0
     pku0we                     0
       noia               2.5e+42
       noib                     0
       noic                     0
      tnoia               1.5e+07
      tnoib               9.9e+06
      rnoia                  0.94
      rnoib                  0.26
      ntnoi                     1
         em               4.1e+07
         ef                  0.84
         af                     1
         kf                     0
    vgs_max                     0
    vgd_max                     0
    vgb_max                     0
    vds_max                     0
    vbs_max                     0
    vbd_max                     0
   vgsr_max                     0
   vgdr_max                     0
   vgbr_max                     0
   vbsr_max                     0
   vbdr_max                     0

Doing analysis at TEMP = 27.000000 and TNOM = 27.000000

 Reference value :  0.00000e+00
No. of Data Rows : 19
binary raw file "IV_nmos.raw"
Note: Simulation executed from .control section 
