
Note: Compatibility modes selected: hs a


Circuit: ** sch_path: /foss/designs/endurance_cryo_toolbox/src/exp/sky130/nch/iv_current_vs_vdrain/iv_ids_vs_vds.sch

option SCALE: Scale is set to 1e-06 for instance and model parameters
Sweeping VGS = 0
Doing analysis at TEMP = 27.000000 and TNOM = 27.000000

 Reference value :  0.00000e+00
No. of Data Rows : 19
Sweeping VGS = 0.6
Doing analysis at TEMP = 27.000000 and TNOM = 27.000000


No. of Data Rows : 19
Sweeping VGS = 1.2
Doing analysis at TEMP = 27.000000 and TNOM = 27.000000


No. of Data Rows : 19
Sweeping VGS = 1.8
Doing analysis at TEMP = 27.000000 and TNOM = 27.000000


No. of Data Rows : 19
binary raw file "IV_IDS_vs_VDS.raw"
Note: Simulation executed from .control section 
Headers added to mosfet_vds_vs_id_0.csv
Headers added to mosfet_vds_vs_id_0.6.csv
Headers added to mosfet_vds_vs_id_1.2.csv
Headers added to mosfet_vds_vs_id_1.8.csv
